@<TRIPOS>MOLECULE
*****
    9     8     0     0     0
SMALL
NO_CHARGES

@<TRIPOS>ATOM
      1 C1          0.5477    0.3297   -0.0621 C.2       1 <0>            nan
      2 C2         -0.1168   -0.7881    0.2329 C.2       1 <0>            nan
      3 O1         -1.4803   -0.8771    0.1667 O.3       1 <0>            nan
      4 C3         -0.2158    1.5206   -0.4772 C.2       1 <0>            nan
      5 O2          0.3353    2.5772   -0.7614 O.2       1 <0>            nan
      6 H1          1.6274    0.3962   -0.0089 H         1 <0>            nan
      7 H2          0.3388   -1.7170    0.5467 H         1 <0>            nan
      8 H3         -1.7743   -1.7634    0.4166 H         1 <0>            nan
      9 H4         -1.3122    1.4082   -0.5180 H         1 <0>            nan
@<TRIPOS>BOND
     1    1    2 2
     2    2    3 1
     3    1    4 1
     4    4    5 2
     5    1    6 1
     6    2    7 1
     7    3    8 1
     8    4    9 1
